                                                                
version 2
run General-0-20220612-10:17:01-3054
attr configname General
attr datetime 20220612-10:17:01
attr experiment General
attr inifile omnetpp.ini
attr iterationvars ""
attr iterationvarsf ""
attr measurement ""
attr network org.car2x.veins.nodes.Scenario
attr processid 3054
attr repetition 0
attr replication #0
attr resultdir results
attr runnumber 0
attr seedset 0
param *.playgroundSizeX 3000m
param *.playgroundSizeY 2000m
param *.playgroundSizeZ 50m
param *.manager.updateInterval 1s
param *.manager.host "\"localhost\""
param *.manager.port 9999
param *.manager.autoShutdown true
param *.manager.launchConfig "xmldoc(\"veins.launchd.xml\")"
param *.annotations.draw true
param *.connectionManager.sendDirect true
param *.connectionManager.maxInterfDist 500m
param *.connectionManager.drawMaxIntfDist false
param *.**.nic.mac1609_4.useServiceChannel false
param *.**.nic.mac1609_4.txPower 20mW
param *.**.nic.mac1609_4.bitrate 6Mbps
param *.**.nic.phy80211p.minPowerLevel -110dBm
param *.**.nic.phy80211p.useNoiseFloor true
param *.**.nic.phy80211p.noiseFloor -98dBm
param *.**.nic.phy80211p.decider "xmldoc(\"config.xml\")"
param *.**.nic.phy80211p.analogueModels "xmldoc(\"config.xml\")"
param *.**.nic.phy80211p.usePropagationDelay true
param *.**.nic.phy80211p.antenna "xmldoc(\"antenna.xml\", \"/root/Antenna[@id='monopole']\")"
param *.node[*].nic.phy80211p.antennaOffsetY "0 m"
param *.node[*].nic.phy80211p.antennaOffsetZ "0 m"
param *.node[*].applType "\"InteractingVehicle\""
param *.node[*].appl.headerLength "88 bit"
param *.node[*].appl.dataLengthBits "512 bit"
param *.node[*].appl.sendBeacons false
param *.node[*].appl.dataOnSch false
param *.node[*].appl.beaconInterval 1s
param *.node[*].veinsmobility.x 0
param *.node[*].veinsmobility.y 0
param *.node[*].veinsmobility.z 0

vector 0 Scenario.node[0].veinsmobility posx ETV
vector 1 Scenario.node[0].veinsmobility posy ETV
vector 2 Scenario.node[0].veinsmobility speed ETV
vector 3 Scenario.node[0].veinsmobility acceleration ETV
vector 4 Scenario.node[0].veinsmobility co2emission ETV
vector 5 Scenario.node[1].veinsmobility posx ETV
vector 6 Scenario.node[1].veinsmobility posy ETV
vector 7 Scenario.node[1].veinsmobility speed ETV
0	2214 207 9 155 8 16 9 953.29289970911 1019.9 8957.1305575504 8918934.9841579
1	2421 126 9 155 8 16 9 423.4 423.4 3810.6 1613408.04
2	2547 193 10 155 9 16 8 1.4645417755703 14.444115804901 66.607100290895 699.12406096528
3	2740 168 29 155 10 16 7 1.27523446886 2.5855512305163 12.979574029331 25.605133262401
4	2908 171 29 155 10 16 7 3.1266669628555 8.0176472406133 39.634067633538 244.52116907944
5	3079 41 124 155 15 16 2 819.15952046711 820.66 1639.8195204671 1344505.1555719
6	3120 40 124 155 15 16 2 28.12 30.120639377181 58.240639377181 1697.9873164902
7	3160 25 155 155 16 16 1 2.5007992214756 2.5007992214756 2.5007992214756 6.253996746133
vector 8 Scenario.node[1].veinsmobility acceleration ETV
vector 9 Scenario.node[1].veinsmobility co2emission ETV
vector 10 Scenario.node[2].veinsmobility posx ETV
vector 11 Scenario.node[2].veinsmobility posy ETV
vector 12 Scenario.node[2].veinsmobility speed ETV
0	3449 74 216 326 17 19 3 907.64277460574 938.08993105917 2768.8661773008 2556003.5315032
1	3523 45 216 326 17 19 3 423.4 423.4 1270.2 537802.68
2	3568 75 216 326 17 19 3 14.956459423268 15.490697030161 45.650125103364 694.78762873101
3	3643 78 216 326 17 19 3 -0.2465092266677 0.75885284503456 1.0465812252602 0.92203425986843
4	3721 75 216 326 17 19 3 1.2520270264418 4.9483708753556 10.395504300353 43.652863690211
5	3796 75 216 326 17 19 3 807.29552696265 816.27636541269 2436.0134393942 1978094.4399077
6	3871 73 216 326 17 19 3 33.964846116416 45.93929738313 118.98208080769 4791.1150000264
7	3944 75 216 326 17 19 3 4.8052584240446 8.5767000937369 19.773322507436 137.49982666802
8	4019 74 216 326 17 19 3 1.5861055656103 2.304459202569 6.0759008722613 12.601956969369
9	4093 75 216 326 17 19 3 3.8855461653815 6.0990782082317 14.005398819159 68.46285113539
10	4168 43 262 326 18 19 2 819.44195919538 820.66 1640.1019591954 1344967.96009
11	4211 42 262 326 18 19 2 28.12 29.744054406155 57.864054406155 1675.4431725163
12	4253 26 326 326 19 19 1 2.0300680076936 2.0300680076936 2.0300680076936 4.1211761158612
vector 13 Scenario.node[2].veinsmobility acceleration ETV
vector 14 Scenario.node[2].veinsmobility co2emission ETV
0	4394 25 453 453 20 20 1 892.93290246391 892.93290246391 892.93290246391 797329.16830263
1	4419 15 453 453 20 20 1 423.4 423.4 423.4 179267.56
2	4434 25 453 453 20 20 1 14.709872141826 14.709872141826 14.709872141826 216.38033842888
3	4459 27 453 453 20 20 1 -0.78082488833461 -0.78082488833461 -0.78082488833461 0.60968750624275
4	4486 15 453 453 20 20 1 0.973 0.973 0.973 0.946729
5	4501 25 453 453 20 20 1 801.35252076538 801.35252076538 801.35252076538 642165.86253703
6	4526 25 453 453 20 20 1 53.863305646163 53.863305646163 53.863305646163 2901.2556951319
7	4551 25 453 453 20 20 1 9.9050103287911 9.9050103287911 9.9050103287911 98.109229613458
8	4576 25 453 453 20 20 1 1.3283102350542 1.3283102350542 1.3283102350542 1.7644080805498
9	4601 25 453 453 20 20 1 4.8484083035257 4.8484083035257 4.8484083035257 23.507063077697
10	4626 26 453 453 20 20 1 817.22822123101 817.22822123101 817.22822123101 667861.96557639
11	4652 26 453 453 20 20 1 32.695705025327 32.695705025327 32.695705025327 1069.0091271032
12	4678 26 453 453 20 20 1 3.6895632739645 3.6895632739645 3.6895632739645 13.612877152587
13	4704 26 453 453 20 20 1 1.6594952662708 1.6594952662708 1.6594952662708 2.7539245387753
14	4730 26 453 453 20 20 1 2.7682221962353 2.7682221962353 2.7682221962353 7.6630541277297
