version 2
run General-0-20220605-11:05:25-17574
attr configname General
attr datetime 20220605-11:05:25
attr experiment General
attr inifile omnetpp.ini
attr iterationvars ""
attr iterationvarsf ""
attr measurement ""
attr network org.car2x.veins.nodes.Scenario
attr processid 17574
attr repetition 0
attr replication #0
attr resultdir results
attr runnumber 0
attr seedset 0
param *.playgroundSizeX 3000m
param *.playgroundSizeY 2000m
param *.playgroundSizeZ 50m
param *.manager.updateInterval 1s
param *.manager.host "\"localhost\""
param *.manager.port 9999
param *.manager.autoShutdown true
param *.manager.launchConfig "xmldoc(\"veins.launchd.xml\")"
param *.annotations.draw true
param *.connectionManager.sendDirect true
param *.connectionManager.maxInterfDist 500m
param *.connectionManager.drawMaxIntfDist false
param *.**.nic.mac1609_4.useServiceChannel false
param *.**.nic.mac1609_4.txPower 20mW
param *.**.nic.mac1609_4.bitrate 6Mbps
param *.**.nic.phy80211p.minPowerLevel -110dBm
param *.**.nic.phy80211p.useNoiseFloor true
param *.**.nic.phy80211p.noiseFloor -98dBm
param *.**.nic.phy80211p.decider "xmldoc(\"config.xml\")"
param *.**.nic.phy80211p.analogueModels "xmldoc(\"config.xml\")"
param *.**.nic.phy80211p.usePropagationDelay true
param *.**.nic.phy80211p.antenna "xmldoc(\"antenna.xml\", \"/root/Antenna[@id='monopole']\")"
param *.node[*].nic.phy80211p.antennaOffsetY "0 m"
param *.node[*].nic.phy80211p.antennaOffsetZ "0 m"
param *.node[*].applType "\"InteractingVehicle\""
param *.node[*].appl.headerLength "88 bit"
param *.node[*].appl.dataLengthBits "512 bit"
param *.node[*].appl.sendBeacons false
param *.node[*].appl.dataOnSch false
param *.node[*].appl.beaconInterval 1s
param *.node[*].veinsmobility.x 0
param *.node[*].veinsmobility.y 0
param *.node[*].veinsmobility.z 0

vector 0 Scenario.node[0].veinsmobility posx ETV
vector 1 Scenario.node[0].veinsmobility posy ETV
vector 2 Scenario.node[0].veinsmobility speed ETV
vector 3 Scenario.node[0].veinsmobility acceleration ETV
vector 4 Scenario.node[0].veinsmobility co2emission ETV
vector 5 Scenario.node[1].veinsmobility posx ETV
vector 6 Scenario.node[1].veinsmobility posy ETV
vector 7 Scenario.node[1].veinsmobility speed ETV
vector 8 Scenario.node[1].veinsmobility acceleration ETV
vector 9 Scenario.node[1].veinsmobility co2emission ETV
vector 10 Scenario.node[2].veinsmobility posx ETV
vector 11 Scenario.node[2].veinsmobility posy ETV
vector 12 Scenario.node[2].veinsmobility speed ETV
vector 13 Scenario.node[2].veinsmobility acceleration ETV
vector 14 Scenario.node[2].veinsmobility co2emission ETV
vector 15 Scenario.node[3].veinsmobility posx ETV
vector 16 Scenario.node[3].veinsmobility posy ETV
vector 17 Scenario.node[3].veinsmobility speed ETV
vector 18 Scenario.node[3].veinsmobility acceleration ETV
vector 19 Scenario.node[3].veinsmobility co2emission ETV
0	9	8	1019.9
0	10	9	1018.4354582244
0	11	10	1014.3853652183
0	30	11	1008.9943750768
0	40	12	1001.3146563781
0	68	13	992.16489057962
0	87	14	980.90589685005
0	124	15	967.73701551401
0	173	16	953.29289970911
0	254	17	938.08993105917
0	399	18	923.1334716359
0	676	19	907.64277460574
0	1137	20	892.93290246391
0	2058	21	877.98699645199
0	3949	22	863.47736278544
0	7640	23	848.49490408011
0	15351	24	833.51189125335
0	29978	25	818.68585284605
0	60036	26	804.3140525353
1	9	8	423.4
1	10	9	423.4
1	11	10	423.4
1	30	11	423.4
1	40	12	423.4
1	68	13	423.4
1	87	14	423.4
1	124	15	423.4
1	173	16	423.4
1	254	17	423.4
1	399	18	423.4
1	676	19	423.4
1	1137	20	423.4
1	2058	21	423.4
1	3949	22	423.4
1	7640	23	423.4
1	15351	24	423.4
1	29978	25	423.4
1	60036	26	423.4
2	10	9	1.4645417755703
2	11	10	4.0500930060865
2	30	11	5.3909901415929
2	40	12	7.679718698631
2	68	13	9.1497657984961
2	87	14	11.258993729576
2	124	15	13.168881336041
2	173	16	14.444115804901
2	254	17	15.202968649935
2	399	18	14.956459423268
2	676	19	15.490697030161
2	1137	20	14.709872141826
2	2058	21	14.94590601192
2	3949	22	14.509633666553
2	7640	23	14.982458705335
2	15351	24	14.983012826761
2	29978	25	14.826038407298
2	60036	26	14.371800310743
3	11	10	2.5855512305163
3	30	11	1.3408971355064
3	40	12	2.2887285570381
3	68	13	1.470047099865
3	87	14	2.1092279310804
3	124	15	1.9098876064643
3	173	16	1.27523446886
3	254	17	0.75885284503456
3	399	18	-0.2465092266677
3	676	19	0.53423760689329
3	1137	20	-0.78082488833461
3	2058	21	0.23603387009352
3	3949	22	-0.43627234536689
3	7640	23	0.47282503878232
3	15351	24	0.0005541214253757
3	29978	25	-0.15697441946249
3	60036	26	-0.45423809655476
4	11	10	3.8351988822478
4	30	11	3.1266669628555
4	40	12	5.7583180138575
4	68	13	4.8637385028677
4	87	14	7.5081971694071
4	124	15	8.0176472406133
4	173	16	6.5243008616888
4	254	17	4.9483708753556
4	399	18	1.2520270264418
4	676	19	4.1951063985557
4	1137	20	0.973
4	2058	21	2.9895936538797
4	3949	22	0.973
4	7640	23	3.8507036761145
4	15351	24	2.1455020904896
4	29978	25	1.5653832111422
4	60036	26	0.973
5	124	15	820.66
5	173	16	819.15952046711
5	254	17	816.27636541269
5	399	18	812.44154701889
5	676	19	807.29552696265
5	1137	20	801.35252076538
5	2058	21	794.20487079609
5	3949	22	785.73747078505
5	7640	23	777.39114192743
5	15351	24	768.98104943158
5	29978	25	760.6337549602
5	60036	26	752.5742172756
6	124	15	28.12
6	173	16	30.120639377181
6	254	17	33.964846116416
6	399	18	39.07793730814
6	676	19	45.93929738313
6	1137	20	53.863305646163
6	2058	21	63.393505605217
6	3949	22	74.683372286595
6	7640	23	85.811810763431
6	15351	24	97.025267424563
6	29978	25	108.15499338641
6	60036	26	118.90104363253
7	173	16	2.5007992214756
7	254	17	4.8052584240446
7	399	18	6.3913639896549
7	676	19	8.5767000937369
7	1137	20	9.9050103287911
7	2058	21	11.912749948818
7	3949	22	14.112333351723
7	7640	23	13.910548096045
7	15351	24	14.016820826416
7	29978	25	13.912157452304
7	60036	26	13.432562807656
8	254	17	2.304459202569
8	399	18	1.5861055656103
8	676	19	2.1853361040819
8	1137	20	1.3283102350542
8	2058	21	2.0077396200271
8	3949	22	2.1995834029047
8	7640	23	-0.20178525567839
8	15351	24	0.10627273037098
8	29978	25	-0.10466337411199
8	60036	26	-0.47959464464802
9	254	17	4.0207744455455
9	399	18	3.8855461653815
9	676	19	6.0990782082317
9	1137	20	4.8484083035257
9	2058	21	7.6050107841235
9	3949	22	9.5313597753378
9	7640	23	1.3532311635013
9	15351	24	2.3995688711059
9	29978	25	1.6789500031043
9	60036	26	0.973
10	399	18	820.66
10	676	19	819.44195919538
10	1137	20	817.22822123101
10	2058	21	814.21731508928
10	3949	22	810.06643572748
10	7640	23	804.42321624508
10	15351	24	797.42937917179
10	29978	25	789.2871986356
10	60036	26	781.33045885753
11	399	18	28.12
11	676	19	29.744054406155
11	1137	20	32.695705025327
11	2058	21	36.710246547628
11	3949	22	42.244752363358
11	7640	23	49.769045006558
11	15351	24	59.09416110428
11	29978	25	69.950401819199
11	60036	26	80.559388189965
12	676	19	2.0300680076936
12	1137	20	3.6895632739645
12	2058	21	5.0181769028772
12	3949	22	6.9181322696619
12	7640	23	9.4053658040008
12	15351	24	11.656395122153
12	29978	25	13.570300893649
12	60036	26	13.261232963457
13	1137	20	1.6594952662708
13	2058	21	1.3286136289127
13	3949	22	1.8999553667847
13	7640	23	2.4872335343389
13	15351	24	2.251029318152
13	29978	25	1.9139057714958
13	60036	26	-0.30906793019183
14	1137	20	2.7682221962353
14	2058	21	2.970550201659
14	3949	22	4.6420562198841
14	7640	23	7.2783699743056
14	15351	24	8.1421834314309
14	29978	25	8.2548060983955
14	60036	26	0.973
15	2058	21	820.66
15	3949	22	819.30581925571
15	7640	23	816.44783839555
15	15351	24	812.04226761549
15	29978	25	806.60649622808
15	60036	26	799.86877945422
16	2058	21	28.12
16	3949	22	29.925574325714
16	7640	23	33.736215472594
16	15351	24	39.61030984601
16	29978	25	46.858005029224
16	60036	26	55.841627394371
17	3949	22	2.2569679071428
17	7640	23	4.7633014335996
17	15351	24	7.3426179667702
17	29978	25	9.0596189790172
17	60036	26	11.229527956434
18	7640	23	2.5063335264567
18	15351	24	2.5793165331706
18	29978	25	1.7170010122471
18	60036	26	2.1699089774163
19	7640	23	4.2269252057314
19	15351	24	6.0650614917042
19	29978	25	5.3645728038446
19	60036	26	7.6549872223864

