file 21938 1655206832                                           
version 2
run General-0-20220614-13:29:43-26347
attr configname General
attr datetime 20220614-13:29:43
attr experiment General
attr inifile omnetpp.ini
attr iterationvars ""
attr iterationvarsf ""
attr measurement ""
attr network org.car2x.veins.nodes.Scenario
attr processid 26347
attr repetition 0
attr replication #0
attr resultdir results
attr runnumber 0
attr seedset 0
param *.playgroundSizeX 3000m
param *.playgroundSizeY 2000m
param *.playgroundSizeZ 50m
param *.manager.updateInterval 1s
param *.manager.host "\"localhost\""
param *.manager.port 9999
param *.manager.autoShutdown true
param *.manager.launchConfig "xmldoc(\"veins.launchd.xml\")"
param *.annotations.draw true
param *.connectionManager.sendDirect true
param *.connectionManager.maxInterfDist 500m
param *.connectionManager.drawMaxIntfDist false
param *.**.nic.mac1609_4.useServiceChannel false
param *.**.nic.mac1609_4.txPower 20mW
param *.**.nic.mac1609_4.bitrate 6Mbps
param *.**.nic.phy80211p.minPowerLevel -110dBm
param *.**.nic.phy80211p.useNoiseFloor true
param *.**.nic.phy80211p.noiseFloor -98dBm
param *.**.nic.phy80211p.decider "xmldoc(\"config.xml\")"
param *.**.nic.phy80211p.analogueModels "xmldoc(\"config.xml\")"
param *.**.nic.phy80211p.usePropagationDelay true
param *.**.nic.phy80211p.antenna "xmldoc(\"antenna.xml\", \"/root/Antenna[@id='monopole']\")"
param *.node[*].nic.phy80211p.antennaOffsetY "0 m"
param *.node[*].nic.phy80211p.antennaOffsetZ "0 m"
param *.node[*].applType "\"InteractingVehicle\""
param *.node[*].appl.headerLength "88 bit"
param *.node[*].appl.dataLengthBits "512 bit"
param *.node[*].appl.sendBeacons false
param *.node[*].appl.dataOnSch false
param *.node[*].appl.beaconInterval 1s
param *.node[*].appl.threshold 2
param *.node[*].appl.givenTime 7
param *.node[*].veinsmobility.x 0
param *.node[*].veinsmobility.y 0
param *.node[*].veinsmobility.z 0

vector 0 Scenario.node[0].veinsmobility posx ETV
vector 1 Scenario.node[0].veinsmobility posy ETV
vector 2 Scenario.node[0].veinsmobility speed ETV
vector 3 Scenario.node[0].veinsmobility acceleration ETV
vector 4 Scenario.node[0].veinsmobility co2emission ETV
vector 5 Scenario.node[1].veinsmobility posx ETV
vector 6 Scenario.node[1].veinsmobility posy ETV
vector 7 Scenario.node[1].veinsmobility speed ETV
0	2282 207 9 155 8 16 9 953.29289970911 1019.9 8957.1305575504 8918934.9841579
1	2489 126 9 155 8 16 9 423.4 423.4 3810.6 1613408.04
2	2615 193 10 155 9 16 8 1.4645417755703 14.444115804901 66.607100290895 699.12406096528
3	2808 168 29 155 10 16 7 1.27523446886 2.5855512305163 12.979574029331 25.605133262401
4	2976 171 29 155 10 16 7 3.1266669628555 8.0176472406133 39.634067633538 244.52116907944
5	3147 41 124 155 15 16 2 819.15952046711 820.66 1639.8195204671 1344505.1555719
6	3188 40 124 155 15 16 2 28.12 30.120639377181 58.240639377181 1697.9873164902
7	3228 25 155 155 16 16 1 2.5007992214756 2.5007992214756 2.5007992214756 6.253996746133
vector 8 Scenario.node[1].veinsmobility acceleration ETV
vector 9 Scenario.node[1].veinsmobility co2emission ETV
0	3366 25 216 216 17 17 1 938.08993105917 938.08993105917 938.08993105917 880012.7187546
1	3391 15 216 216 17 17 1 423.4 423.4 423.4 179267.56
2	3406 25 216 216 17 17 1 15.202968649935 15.202968649935 15.202968649935 231.13025577092
3	3431 26 216 216 17 17 1 0.75885284503456 0.75885284503456 0.75885284503456 0.57585764041705
4	3457 25 216 216 17 17 1 4.9483708753556 4.9483708753556 4.9483708753556 24.486374320067
5	3482 25 216 216 17 17 1 816.27636541269 816.27636541269 816.27636541269 666307.10473135
6	3507 25 216 216 17 17 1 33.964846116416 33.964846116416 33.964846116416 1153.6107717118
7	3532 25 216 216 17 17 1 4.8052584240446 4.8052584240446 4.8052584240446 23.090508521851
8	3557 24 216 216 17 17 1 2.304459202569 2.304459202569 2.304459202569 5.3105322163049
9	3581 25 216 216 17 17 1 4.0207744455455 4.0207744455455 4.0207744455455 16.166627141951
vector 10 Scenario.node[2].veinsmobility posx ETV
vector 11 Scenario.node[2].veinsmobility posy ETV
vector 12 Scenario.node[2].veinsmobility speed ETV
vector 13 Scenario.node[2].veinsmobility acceleration ETV
vector 14 Scenario.node[2].veinsmobility co2emission ETV
vector 15 Scenario.node[3].veinsmobility posx ETV
vector 16 Scenario.node[3].veinsmobility posy ETV
vector 17 Scenario.node[3].veinsmobility speed ETV
vector 18 Scenario.node[3].veinsmobility acceleration ETV
vector 19 Scenario.node[3].veinsmobility co2emission ETV
0	4138 175 262 1177 18 24 7 833.51189125335 923.1334716359 6147.1803032764 5404459.9781435
1	4313 106 262 1177 18 24 7 423.4 423.4 2963.8 1254872.92
2	4419 175 262 1177 18 24 7 14.509633666553 15.490697030161 104.57803980582 1562.9120292676
3	4594 187 262 1177 18 24 7 -0.78082488833461 0.53423760689329 -0.21995582317468 1.4254734972074
4	4781 156 262 1177 18 24 7 0.973 4.1951063985557 16.378932845481 49.428715606999
5	4937 176 262 1177 18 24 7 768.98104943158 812.44154701889 5547.4041276871 4397766.7894374
6	5113 174 262 1177 18 24 7 39.07793730814 97.025267424563 459.79449641724 32912.67195777
7	5287 176 262 1177 18 24 7 6.3913639896549 14.112333351723 78.825526635184 943.56472614505
8	5463 179 262 1177 18 24 7 -0.20178525567839 2.1995834029047 9.2115624023709 17.977029544404
9	5642 176 262 1177 18 24 7 1.3532311635013 9.5313597753378 35.722203271207 232.07546061375
10	5818 174 262 1177 18 24 7 797.42937917179 820.66 5683.46652666 4614977.7177502
11	5992 172 262 1177 18 24 7 28.12 59.09416110428 278.37796445331 11845.791320932
12	6164 157 326 1177 19 24 6 2.0300680076936 11.656395122153 38.717701380351 315.10915994837
13	6321 130 453 1177 20 24 5 1.3286136289127 2.4872335343389 9.6263271144591 19.382432755002
14	6451 130 453 1177 20 24 5 2.7682221962353 8.1421834314309 25.801382023515 157.30572909081
15	6581 96 580 1177 21 24 4 812.04226761549 820.66 3268.4559252668 2670744.5782812
16	6677 94 580 1177 21 24 4 28.12 39.61030984601 131.39209964432 4393.3832792341
17	6771 79 743 1177 22 24 3 2.2569679071428 7.3426179667702 14.362887307513 81.696983287141
18	6850 53 960 1177 23 24 2 2.5063335264567 2.5793165331706 5.0856500596274 12.934581524128
19	6903 53 960 1177 23 24 2 4.2269252057314 6.0650614917042 10.291986697436 54.651867593001
0	6956 258 1394 3131 25 34 10 686.13968642123 818.68585284605 7526.067198758 5682125.2883973
1	7214 160 1394 3131 25 34 10 423.4 423.4 4234 1792675.6
2	7374 259 1394 3131 25 34 10 14.30114556213 15.315033388111 147.37220483212 2172.6788959767
3	7633 277 1394 3131 25 34 10 -0.58246058330406 0.53148133074865 -0.00097793433815241 1.878623048315
4	7910 228 1394 3131 25 34 10 0.973 4.1422922233998 23.461157279414 72.796795196674
5	8138 256 1394 3131 25 34 10 686.66784615937 760.6337549602 7237.2076286211 5243266.1808083
6	8394 259 1394 3131 25 34 10 108.15499338641 206.77620512084 1573.7231618386 257524.912044
7	8653 259 1394 3131 25 34 10 13.326836358091 14.335736109653 137.18867212035 1883.2714333916
8	8912 275 1394 3131 25 34 10 -0.76080300819594 1.0088997515617 0.31891528323758 3.1379661678199
9	9187 219 1394 3131 25 34 10 0.973 5.5593814323321 23.772713442162 84.693653633351
10	9406 268 1394 3131 25 34 10 715.85153432097 789.2871986356 7525.2666778319 5668486.7456633
11	9674 270 1394 3131 25 34 10 69.950401819199 167.86462090538 1189.6444295574 151343.85517021
12	9944 270 1394 3131 25 34 10 13.199410756022 13.964734808794 135.96307475137 1849.210899375
13	10214 282 1394 3131 25 34 10 -0.52765177399851 1.9139057714958 1.9366617028331 4.9545865104751
14	10496 230 1394 3131 25 34 10 0.973 8.2548060983955 27.631337576063 120.82983489212
15	10726 270 1394 3131 25 34 10 734.82232409912 806.60649622808 7712.4772032707 5953600.3428707
16	10996 270 1394 3131 25 34 10 46.858005029224 142.57023453451 940.03039563908 97912.170959169
17	11266 269 1394 3131 25 34 10 9.0596189790172 14.070183269891 128.69990586063 1678.5469356092
18	11535 280 1394 3131 25 34 10 -0.9309856868349 2.5142827522242 5.7319417399609 17.470691628927
19	11815 230 1394 3131 25 34 10 0.973 10.340780399748 39.420195104737 255.09059032225
vector 20 Scenario.node[4].veinsmobility posx ETV
vector 21 Scenario.node[4].veinsmobility posy ETV
vector 22 Scenario.node[4].veinsmobility speed ETV
vector 23 Scenario.node[4].veinsmobility acceleration ETV
vector 24 Scenario.node[4].veinsmobility co2emission ETV
vector 25 Scenario.node[5].veinsmobility posx ETV
vector 26 Scenario.node[5].veinsmobility posy ETV
vector 27 Scenario.node[6].veinsmobility posx ETV
vector 28 Scenario.node[6].veinsmobility posy ETV
vector 29 Scenario.node[5].veinsmobility speed ETV
vector 30 Scenario.node[5].veinsmobility acceleration ETV
vector 31 Scenario.node[5].veinsmobility co2emission ETV
vector 32 Scenario.node[6].veinsmobility speed ETV
vector 33 Scenario.node[6].veinsmobility acceleration ETV
vector 34 Scenario.node[6].veinsmobility co2emission ETV
0	12843 337 3348 7790 35 47 13 518.22286026264 671.56025789042 7638.2869040834 4519327.0197025
1	13180 208 3348 7790 35 47 13 423.4 423.4 5504.2 2330478.28
2	13388 337 3348 7790 35 47 13 6.5288756224982 15.477849753919 167.91682615859 2276.7535463724
3	13725 355 3348 7790 35 47 13 -3.9492449130785 2.2526047209976 -4.3165918246154 35.992700543022
4	14080 287 3348 7790 35 47 13 0.973 6.5790607613295 33.73147816548 140.08239056213
5	14367 338 3348 7790 35 47 13 577.35506348003 678.63976346683 8162.9904338333 5138720.1262224
6	14705 336 3348 7790 35 47 13 217.48031537756 352.52658202662 3706.3460882223 1079796.5215362
7	15041 336 3348 7790 35 47 13 13.364713094487 14.453444173547 182.18797113223 2554.6675524168
8	15377 357 3348 7790 35 47 13 -0.95559828875121 0.66040222852025 -0.22002803925425 3.2745757347854
9	15734 296 3348 7790 35 47 13 0.973 4.2736202893868 30.897609271749 90.609076767895
10	16030 348 3348 7790 35 47 13 610.27868439134 707.99922897458 8565.4839196502 5655774.2992186
11	16378 349 3348 7790 35 47 13 178.33436136723 308.62842081155 3169.688107133 794385.65864442
12	16727 348 3348 7790 35 47 13 13.024003628475 14.0397898972 175.95474988271 2382.608607045
13	17075 372 3348 7790 35 47 13 -0.68526921982411 0.60341339674778 -0.25041764967609 2.064943823131
14	17447 321 3348 7790 35 47 13 0.973 4.0846377507977 27.820063033078 74.286006754439
15	17768 351 3348 7790 35 47 13 629.49638189391 726.46466490696 8813.0450185189 5986445.2316683
16	18119 347 3348 7790 35 47 13 153.71378012405 283.00482414145 2839.6066419748 641322.23198531
17	18466 351 3348 7790 35 47 13 12.857264418134 13.929431986927 175.54323700867 2372.229576927
18	18817 369 3348 7790 35 47 13 -0.88581873192452 1.059757378581 0.63755175385159 5.5213973073466
19	19186 290 3348 7790 35 47 13 0.973 5.584792800612 33.213058487153 126.26381451507
20	19476 342 3348 7790 35 47 13 755.56609691753 820.66 10320.428017236 8199382.9666841
21	19818 340 3348 7790 35 47 13 28.12 114.91187077662 829.76264368531 64003.932741873
22	20158 323 3613 7790 36 47 12 1.6244671842083 11.907652331819 108.48983847078 1125.0082048931
23	20481 308 3944 7790 37 47 11 -0.45366495079361 2.1918069144012 10.092962663528 19.698986066047
24	20789 286 3944 7790 37 47 11 0.973 7.7330580673525 37.52057319838 168.21607791574
25	21075 125 5732 7790 43 47 5 997.03983620591 1019.9 5054.1821488182 5109298.3233142
26	21200 85 5732 7790 43 47 5 423.4 423.4 2117 896337.8
27	21285 98 6123 7790 44 47 4 812.95448146128 820.66 3269.8151256431 2672957.6167272
28	21383 98 6123 7790 44 47 4 28.12 38.394024718292 129.57983247586 4259.7381458626
29	21481 108 6123 7790 44 47 4 2.1660937392386 9.2163162445417 22.860163794085 158.66309058676
30	21589 81 6619 7790 45 47 3 2.2202147939708 2.5144490908366 7.0502225053031 16.613619686728
31	21670 81 6619 7790 45 47 3 3.8354948173694 6.5583034307021 16.112436390814 90.425186590853
32	21751 80 6619 7790 45 47 3 2.055615602457 6.3658868033672 12.842530897865 64.295563225787
33	21831 53 7159 7790 46 47 2 1.9448583113262 2.365412889584 4.3102712009102 9.3776519893447
34	21884 53 7159 7790 46 47 2 3.851524407638 4.4246820062614 8.2762064138994 34.412051119165

