file 5818 1655148749                                            
version 2
run General-0-20220613-21:31:15-47011
attr configname General
attr datetime 20220613-21:31:15
attr experiment General
attr inifile omnetpp.ini
attr iterationvars ""
attr iterationvarsf ""
attr measurement ""
attr network org.car2x.veins.nodes.Scenario
attr processid 47011
attr repetition 0
attr replication #0
attr resultdir results
attr runnumber 0
attr seedset 0
param *.playgroundSizeX 3000m
param *.playgroundSizeY 2000m
param *.playgroundSizeZ 50m
param *.manager.updateInterval 1s
param *.manager.host "\"localhost\""
param *.manager.port 9999
param *.manager.autoShutdown true
param *.manager.launchConfig "xmldoc(\"veins.launchd.xml\")"
param *.annotations.draw true
param *.connectionManager.sendDirect true
param *.connectionManager.maxInterfDist 500m
param *.connectionManager.drawMaxIntfDist false
param *.**.nic.mac1609_4.useServiceChannel false
param *.**.nic.mac1609_4.txPower 20mW
param *.**.nic.mac1609_4.bitrate 6Mbps
param *.**.nic.phy80211p.minPowerLevel -110dBm
param *.**.nic.phy80211p.useNoiseFloor true
param *.**.nic.phy80211p.noiseFloor -98dBm
param *.**.nic.phy80211p.decider "xmldoc(\"config.xml\")"
param *.**.nic.phy80211p.analogueModels "xmldoc(\"config.xml\")"
param *.**.nic.phy80211p.usePropagationDelay true
param *.**.nic.phy80211p.antenna "xmldoc(\"antenna.xml\", \"/root/Antenna[@id='monopole']\")"
param *.node[*].nic.phy80211p.antennaOffsetY "0 m"
param *.node[*].nic.phy80211p.antennaOffsetZ "0 m"
param *.node[*].applType "\"InteractingVehicle\""
param *.node[*].appl.headerLength "88 bit"
param *.node[*].appl.dataLengthBits "512 bit"
param *.node[*].appl.sendBeacons false
param *.node[*].appl.dataOnSch false
param *.node[*].appl.beaconInterval 1s
param *.node[*].appl.threshold 2
param *.node[*].appl.givenTime 7
param *.node[*].veinsmobility.x 0
param *.node[*].veinsmobility.y 0
param *.node[*].veinsmobility.z 0

vector 0 Scenario.node[0].veinsmobility posx ETV
vector 1 Scenario.node[0].veinsmobility posy ETV
vector 2 Scenario.node[0].veinsmobility speed ETV
vector 3 Scenario.node[0].veinsmobility acceleration ETV
vector 4 Scenario.node[0].veinsmobility co2emission ETV
vector 5 Scenario.node[1].veinsmobility posx ETV
vector 6 Scenario.node[1].veinsmobility posy ETV
vector 7 Scenario.node[1].veinsmobility speed ETV
vector 8 Scenario.node[1].veinsmobility acceleration ETV
vector 9 Scenario.node[1].veinsmobility co2emission ETV
0	2395 232 9 216 8 17 10 938.08993105917 1019.9 9895.2204886096 9798947.7029125
1	2627 141 9 216 8 17 10 423.4 423.4 4234 1792675.6
2	2768 218 10 216 9 17 9 1.4645417755703 15.202968649935 81.81006894083 930.25431673619
3	2986 194 29 216 10 17 8 0.75885284503456 2.5855512305163 13.738426874365 26.180990902818
4	3180 196 29 216 10 17 8 3.1266669628555 8.0176472406133 44.582438508893 269.00754339951
5	3376 66 124 216 15 17 3 816.27636541269 820.66 2456.0958858798 2010812.2603033
6	3442 65 124 216 15 17 3 28.12 33.964846116416 92.205485493597 2851.598088202
7	3507 50 155 216 16 17 2 2.5007992214756 4.8052584240446 7.3060576455202 29.344505267984
8	3557 24 216 216 17 17 1 2.304459202569 2.304459202569 2.304459202569 5.3105322163049
9	3581 25 216 216 17 17 1 4.0207744455455 4.0207744455455 4.0207744455455 16.166627141951
vector 10 Scenario.node[2].veinsmobility posx ETV
vector 11 Scenario.node[2].veinsmobility posy ETV
vector 12 Scenario.node[2].veinsmobility speed ETV
0	3757 49 262 326 18 19 2 907.64277460574 923.1334716359 1830.7762462416 1675990.8127486
1	3806 30 262 326 18 19 2 423.4 423.4 846.8 358535.12
2	3836 50 262 326 18 19 2 14.956459423268 15.490697030161 30.447156453429 463.65737296009
3	3886 52 262 326 18 19 2 -0.2465092266677 0.53423760689329 0.2877283802256 0.34617661945138
4	3938 50 262 326 18 19 2 1.2520270264418 4.1951063985557 5.4471334249975 19.166489370144
5	3988 50 262 326 18 19 2 807.29552696265 812.44154701889 1619.7370739815 1311787.3351764
6	4038 48 262 326 18 19 2 39.07793730814 45.93929738313 85.01723469127 3637.5042283145
7	4086 50 262 326 18 19 2 6.3913639896549 8.5767000937369 14.968064083392 114.40931814616
8	4136 50 262 326 18 19 2 1.5861055656103 2.1853361040819 3.7714416696923 7.2914247530642
9	4186 50 262 326 18 19 2 3.8855461653815 6.0990782082317 9.9846243736132 52.296223993438
10	4236 43 262 326 18 19 2 819.44195919538 820.66 1640.1019591954 1344967.96009
11	4279 42 262 326 18 19 2 28.12 29.744054406155 57.864054406155 1675.4431725163
12	4321 26 326 326 19 19 1 2.0300680076936 2.0300680076936 2.0300680076936 4.1211761158612
vector 13 Scenario.node[2].veinsmobility acceleration ETV
vector 14 Scenario.node[2].veinsmobility co2emission ETV
0	4462 25 453 453 20 20 1 892.93290
46391 892.93290246391 892.93290246391 797329.16830263
1	4487 15 453 453 20 20 1 423.4 423.4 423.4 179267.56
2	4502 25 453 453 20 20 1 14.709872141826 14.709872141826 14.709872141826 216.38033842888
3	4527 27 453 453 20 20 1 -0.78082488833461 -0.78082488833461 -0.78082488833461 0.60968750624275
4	4554 15 453 453 20 20 1 0.973 0.973 0.973 0.946729
5	4569 25 453 453 20 20 1 801.35252076538 801.35252076538 801.35252076538 642165.86253703
6	4594 25 453 453 20 20 1 53.863305646163 53.863305646163 53.863305646163 2901.2556951319
7	4619 25 453 453 20 20 1 9.9050103287911 9.9050103287911 9.9050103287911 98.109229613458
8	4644 25 453 453 20 20 1 1.3283102350542 1.3283102350542 1.3283102350542 1.7644080805498
9	4669 25 453 453 20 20 1 4.8484083035257 4.8484083035257 4.8484083035257 23.507063077697
10	4694 26 453 453 20 20 1 817.22822123101 817.22822123101 817.22822123101 667861.96557639
11	4720 26 453 453 20 20 1 32.695705025327 32.695705025327 32.695705025327 1069.0091271032
12	4746 26 453 453 20 20 1 3.6895632739645 3.6895632739645 3.6895632739645 13.612877152587
13	4772 26 453 453 20 20 1 1.6594952662708 1.6594952662708 1.6594952662708 2.7539245387753
14	4798 26 453 453 20 20 1 2.7682221962353 2.7682221962353 2.7682221962353 7.6630541277297
vector 15 Scenario.node[3].veinsmobility posx ETV
vector 16 Scenario.node[3].veinsmobility posy ETV
vector 17 Scenario.node[3].veinsmobility speed ETV
0	4975 50 580 743 21 22 2 863.47736278544 877.98699645199 1741.4643592374 1516454.3219817
1	5025 30 580 743 21 22 2 423.4 423.4 846.8 358535.12
2	5055 49 580 743 21 22 2 14.509633666553 14.94590601192 29.455539678473 433.90957565471
3	5104 53 580 743 21 22 2 -0.43627234536689 0.23603387009352 -0.20023847527336 0.24604554716325
4	5157 40 580 743 21 22 2 0.973 2.9895936538797 3.9625936538797 9.884399215318
5	5197 50 580 743 21 22 2 785.73747078505 794.20487079609 1579.9423415811 1248144.7497919
6	5247 50 580 743 21 22 2 63.393505605217 74.683372286595 138.07687789181 9596.3426490169
7	5297 50 580 743 21 22 2 11.912749948818 14.112333351723 26.025083300541 341.07156397322
8	5347 50 580 743 21 22 2 2.0077396200271 2.1995834029047 4.2073230229318 8.8691855281604
9	5397 50 580 743 21 22 2 7.6050107841235 9.5313597753378 17.136370559461 148.68300819356
10	5447 52 580 743 21 22 2 810.06643572748 814.21731508928 1624.2837508168 1319157.4664834
11	5499 52 580 743 21 22 2 36.710246547628 42.244752363358 78.954998910986 3132.2613038291
12	5551 52 580 743 21 22 2 5.0181769028772 6.9181322696619 11.936309172539 73.042653529107
13	5603 52 580 743 21 22 2 1.3286136289127 1.8999553667847 3.2285689956974 5.3750445707066
14	5655 51 580 743 21 22 2 2.970550201659 4.6420562198841 7.6126064215432 30.372854449142
15	5706 43 580 743 21 22 2 819.30581925571 820.66 1639.9658192557 1344744.8610663
16	5749 42 580 743 21 22 2 28.12 29.925574325714 58.045574325714 1686.2743987239
17	5791 26 743 743 22 22 1 2.2569679071428 2.2569679071428 2.2569679071428 5.0939041338727

